
**** 04/07/03 14:47:45 ********* PSpice 9.2 (Mar 2000) ******** ID# 1107000750 
 ** Profile: "SCHEMATIC1-test"  [ E:\kp\cardiac_parallel\parb-schematic1-test.sim ] 


 ****     CIRCUIT DESCRIPTION


******************************************************************************




** Creating circuit file "parb-schematic1-test.sim.cir" 
** WARNING: THIS AUTOMATICALLY GENERATED FILE MAY BE OVERWRITTEN BY SUBSEQUENT SIMULATIONS

*Libraries: 
* Local Libraries :
.STMLIB ".\PARB.stl" 
* From [PSPICE NETLIST] section of C:\Program Files\Orcad\PSpice\PSpice.ini file:
.lib "nom.lib" 

*Analysis directives: 
.TRAN  0 5ms 0 
.PROBE V(*) I(*) W(*) D(*) NOISE(*) 
.INC ".\parb-SCHEMATIC1.net" 



**** INCLUDING parb-SCHEMATIC1.net ****
* source PARB
G_G2103         N5887630 N5887631 TABLE { V(N588237, N588541) } 
+ ( (-55mv,-0.57nA)(-50mv,-0.71nA)(3mv,-1.65nA)(10mv,-1.67nA) )
G_G3404         N5856300 N5856301 TABLE { V(N585528, N585558) } 
+ ( (-55mv,-0.57nA)(-50mv,-0.71nA)(3mv,-1.65nA)(10mv,-1.67nA) )
G_G100104         N6249130 N625913 TABLE { V(N624771, N624931) } 
+ ( (-55mv,-0.57nA)(-50mv,-0.71nA)(3mv,-1.65nA)(10mv,-1.67nA) )
V_V4020         N572062 N5727140 60mV
R_R237         N664390 N664004  100k  
G_G21992         N6625100 N6625101 TABLE { V(N662602, N662570) } 
+ ( (-55mv,-0.57nA)(-50mv,-0.71nA)(3mv,-1.65nA)(10mv,-1.67nA) )
V_V9962         N661249 N6619010 60mV
V_V3800         N6237960 N623342 90mV
R_R9213         N588263 N5883351  3000meg  
V_V361         N588233 N5883350 60mV
R_R941         N586873 N587551  100  
R_R28         N5524281 N552970  3000meg  
V_V8888         N6617890 N661399 90mV
R_R12         N530720 N531460  7  
R_R11603         N6229170 N621925  6000meg  
R_R9254         N581014 N5812361  3000meg  
R_R186         N661299 N662612  7  
V_V12         N534177 N5343490 60mV
V_V9989         N669342 N6692500 60mV
V_V232         N5809700 N580706 90mV
G_G500902         N6020230 N6020231 TABLE { V(N601039, N601265) } 
+ ( (-55mv,-0.57nA)(-50mv,-0.71nA)(3mv,-1.65nA)(10mv,-1.67nA) )
R_R11901         N625913 N624931  3000meg  
V_V14         N534215 N5348110 60mV
R_R122991         0 N6523920  6000meg  
V_V35         N552134 N5534220 60mV
V_V8884         N6525031 N645119 90mV
R_R9251         N585836 N5860581  3000meg  
G_G219002         N6220270 N6220271 TABLE { V(N621929, N622349) } 
+ ( (-55mv,-0.57nA)(-50mv,-0.71nA)(3mv,-1.65nA)(10mv,-1.67nA) )
G_G191         N6586590 N6586591 TABLE { V(N658665, N658531) } 
+ ( (-55mv,-0.57nA)(-50mv,-0.71nA)(3mv,-1.65nA)(10mv,-1.67nA) )
R_R39         N530590 N530508  100  
V_V234         N5857920 N585528 90mV
V_V9093         N668139 N6680591 60mV
R_R222         N668249 N668425  100  
C_C413         N586911 N586881  4p  
C_C4000         N530380 N530720  4p  
R_R156         N662862 N663038  100  
R_R125994         N666604 N6665441  3000meg  
G_G996         N6640241 N6645261 TABLE { V(N664104, N664000) } 
+ ( (-55mv,-0.57nA)(-50mv,-0.71nA)(3mv,-1.65nA)(10mv,-1.67nA) )
R_R992         N624014 N624803  100k  
C_C7757         N663954 N664154  6p  
R_R132         N644693 N645119  200k  
R_R164         N661253 N661217  100  
V_V9981         N644693 N6456690 60mV
R_R24         N534307 0  1k  
R_R9272         N587675 N586799  3000meg  
R_R963         N580898 N585558  7  
R_R204         N666636 N666786  200k  
R_R121991         N658531 N6586591  3000meg  
R_R181         N645935 N644697  100  
C_C34412         N626611 N626191  6p  
G_G34902         N6233301 N6237201 TABLE { V(N623342, N623506) } 
+ ( (-55mv,-0.57nA)(-50mv,-0.71nA)(3mv,-1.65nA)(10mv,-1.67nA) )
R_R68         N552906 N555418  100k  
R_R10899         N5307861 N530384  3000meg  
V_V9987         N662602 N6625100 60mV
G_G8889         N6699940 N669646 TABLE { V(N669342, N669542) } 
+ ( (-55mv,-0.57nA)(-50mv,-0.71nA)(3mv,-1.65nA)(10mv,-1.67nA) )
R_R210         N667989 N668139  200k  
R_R11504         N6222251 N621925  3000meg  
R_R918         N572884 N573470  100  
V_V909         N661399 N6613191 60mV
R_R969         N588151 N551876  100  
V_V8893         N669486 N6694800 60mV
V_V416         N5810660 N580710 90mV
R_R91         N543067 N531460  100k  
C_C421         N588229 N588147  4p  
R_R9230         N5873331 N586795  6000meg  
R_R948         N585478 N585836  100  
V_V680         N518275 N5177391 60mV
V_V415         N5858880 N585532 90mV
R_R125997         N659864 N6598041  3000meg  
V_V22         N552016 N5535020 60mV
R_R986         N585478 N585520  100k  
G_G21994         N6584290 N6584291 TABLE { V(N658521, N658489) } 
+ ( (-55mv,-0.57nA)(-50mv,-0.71nA)(3mv,-1.65nA)(10mv,-1.67nA) )
R_R9263         N572360 N5769720  6000meg  
R_R122998         N666646 N6666240  6000meg  
V_V290         N586877 N5870951 60mV
V_V394         N5808300 N580710 90mV
R_R16         N534109 N534177  200k  
G_G197         N6654210 N6654211 TABLE { V(N665427, N665293) } 
+ ( (-55mv,-0.57nA)(-50mv,-0.71nA)(3mv,-1.65nA)(10mv,-1.67nA) )
G_G8882         N6449370 N644895 TABLE { V(N644693, N645085) } 
+ ( (-55mv,-0.57nA)(-50mv,-0.71nA)(3mv,-1.65nA)(10mv,-1.67nA) )
G_G100102         N6015570 N601929 TABLE { V(N600841, N600837) } 
+ ( (-55mv,-0.57nA)(-50mv,-0.71nA)(3mv,-1.65nA)(10mv,-1.67nA) )
C_C884         N669492 N669388  4p  
G_G8883         N6632540 N662906 TABLE { V(N662602, N662802) } 
+ ( (-55mv,-0.57nA)(-50mv,-0.71nA)(3mv,-1.65nA)(10mv,-1.67nA) )
V_V392         N5856520 N585532 90mV
R_R126995         N644697 N6526510  6000meg  
V_V8897         N662746 N6627400 60mV
R_R230         N667072 N666686  100k  
C_C40         N517853 N517623  4p  
C_C441         N588237 N588151  6p  
R_R1006         N588183 N626351  100  
R_R1020         N622825 N622039  100k  
R_R55         N552134 N552016  200k  
R_R1013         N624014 N624246  100  
R_R77         N5593861 N552122  6000meg  
R_R12101         N6261431 N626351  6000meg  
R_R9222         0 N5767380  6000meg  
G_G100103         N6234920 N624492 TABLE { V(N623350, N623510) } 
+ ( (-55mv,-0.57nA)(-50mv,-0.71nA)(3mv,-1.65nA)(10mv,-1.67nA) )
V_V9991         N6690410 N667989 90mV
R_R121992         N665293 N6654211  3000meg  
C_C238         N551884 N552970  4p  
R_R122995         N659906 N6598840  6000meg  
R_R126996         N666604 N6671140  6000meg  
V_V28         N552142 N5541580 60mV
R_R124998         N6685611 N668035  3000meg  
V_V3803         N6223750 N621921 90mV
R_R1027         N600829 N600833  100  
R_R932         N600841 N601039  200k  
C_C995         0 N644689  4p  
R_R84         N553240 N552172  3000meg  
R_R238         N664214 N664390  100  
V_V9979         N6644320 N663954 90mV
C_C442         N572062 N572314  6p  
V_V9984         N658521 N6584290 60mV
R_R48         N551704 N552142  200k  
R_R913         0 N572356  100k  
G_G21998         N6456690 N6456691 TABLE { V(N644693, N644697) } 
+ ( (-55mv,-0.57nA)(-50mv,-0.71nA)(3mv,-1.65nA)(10mv,-1.67nA) )
R_R11903         N624492 N623510  3000meg  
C_C100         N530388 N530376  6p  
C_C88         N662752 N662648  4p  
R_R942         N587551 N587073  100k  
C_C776         N663922 N663954  6p  
G_G21990         N6651910 N6651911 TABLE { V(N665283, N665251) } 
+ ( (-55mv,-0.57nA)(-50mv,-0.71nA)(3mv,-1.65nA)(10mv,-1.67nA) )
C_C34211         N626347 N626183  4p  
R_R144         N659942 N659946  7  
G_G5         N5348110 N558596 TABLE { V(N534215, N534103) } 
+ ( (-55mv,-0.57nA)(-50mv,-0.71nA)(3mv,-1.65nA)(10mv,-1.67nA) )
R_R216         N669346 N669602  100k  
R_R173         N658525 N658489  100  
V_V88996         N6666240 N666780 90mV
V_V9996         N6623010 N661249 90mV
R_R998         N626223 N626611  100  
R_R410         N5242081 N5241020  30meg  
R_R11702         N626611 N6267050  6000meg  
R_R953         N588147 N588425  7  
R_R126998         N659864 N6603740  6000meg  
V_V3902         N600899 N6008850 60mV
R_R127996         N668293 N668189  3000meg  
V_V996         N663954 N6646060 60mV
V_V230         N5767380 N572160 90mV
R_R12499         N6618211 N661295  3000meg  
R_R138         N658567 N658571  7  
V_V380         N5873331 N586877 90mV
R_R958         N553082 N551974  100k  
V_V13         N5603791 N551704 90mV
G_G34903         N6219091 N6222991 TABLE { V(N621921, N622085) } 
+ ( (-55mv,-0.57nA)(-50mv,-0.71nA)(3mv,-1.65nA)(10mv,-1.67nA) )
R_R11402         N626347 N6266370  6000meg  
R_R123992         N6698820 N669388  6000meg  
C_C34411         N625191 N624771  6p  
R_R223         N668425 N668039  100k  
G_G8887         N6591730 N658825 TABLE { V(N658521, N658721) } 
+ ( (-55mv,-0.57nA)(-50mv,-0.71nA)(3mv,-1.65nA)(10mv,-1.67nA) )
R_R30         N5306720 N530508  6000meg  
R_R157         N662606 N662570  100  
R_R11700         N600833 N6060010  6000meg  
V_V8892         N658665 N6586590 60mV
C_C34314         N626191 N626351  6p  
C_C7739         N666636 N666836  6p  
V_V88997         N6598840 N660040 90mV
G_G5009011         N5186730 N517623 TABLE { V(N517853, N517623) } 
+ ( (-55mv,-05.7nA)(-50mv,-7.1nA)(3mv,-16.5nA)(10mv,-16.7nA) )
R_R919         N572356 N572360  100  
R_R993         N624803 N625435  100k  
R_R127998         N661553 N661449  3000meg  
R_R11         N531460 N530938  100k  
V_V9986         N665283 N6651910 60mV
R_R194         N663958 N664214  100k  
R_R9261         N581014 N5810660  6000meg  
G_G50013         N5809201 N5816961 TABLE { V(N580702, N580620) } 
+ ( (-55mv,-0.57nA)(-50mv,-0.71nA)(3mv,-1.65nA)(10mv,-1.67nA) )
R_R150         N662746 N662602  200k  
R_R199         N665427 N665283  200k  
C_C994         N669352 N669486  4p  
R_R123994         N6631420 N662648  6000meg  
R_R9264         N585836 N5858880  6000meg  
C_C885         N658671 N658567  4p  
G_G50010         N5857421 N5865181 TABLE { V(N585524, N585442) } 
+ ( (-55mv,-0.57nA)(-50mv,-0.71nA)(3mv,-1.65nA)(10mv,-1.67nA) )
R_R38         N531060 N543067  100  
C_C430         N588541 N588237  6p  
R_R165         N660156 N660332  100  
V_V9099         N645119 N6447590 60mV
R_R187         N664154 N645935  100  
R_R182         N645085 N600829  100  
C_C7749         N659896 N660096  6p  
R_R25         N534493 0  1k  
R_R970         N587073 N551974  100k  
G_G100100         N6220710 N623071 TABLE { V(N621929, N622089) } 
+ ( (-55mv,-0.57nA)(-50mv,-0.71nA)(3mv,-1.65nA)(10mv,-1.67nA) )
R_R11800         N626611 N6262891  3000meg  
R_R987         N623346 N623460  7  
R_R12102         N6247231 N624931  6000meg  
R_R231         N665543 N665719  100  
V_V15         N534109 N5342090 60mV
C_C34113         N601039 N601265  4p  
G_G134         N5343490 N535105 TABLE { V(N534177, N534493) } 
+ ( (-55mv,-0.57nA)(-50mv,-0.71nA)(3mv,-1.65nA)(10mv,-1.67nA) )
G_G8888         N6659350 N665587 TABLE { V(N665283, N665483) } 
+ ( (-55mv,-0.57nA)(-50mv,-0.71nA)(3mv,-1.65nA)(10mv,-1.67nA) )
V_V3904         N626183 N6261711 60mV
R_R33         N534359 N5344851  3000meg  
R_R128998         N6690410 N668189  6000meg  
V_V68         N530392 N5304941 60mV
R_R62         N551974 N551876  100k  
V_V8896         N665427 N6654210 60mV
C_C998         N662612 N662746  4p  
R_R79         N5603791 N551672  6000meg  
R_R120         N517623 N518511  7  
G_G3403         N5883350 N5883351 TABLE { V(N588233, N588263) } 
+ ( (-55mv,-0.57nA)(-50mv,-0.71nA)(3mv,-1.65nA)(10mv,-1.67nA) )
R_R11900         N623071 N622089  3000meg  
R_R1014         N623382 N623770  100  
G_G52         N5524280 N5524281 TABLE { V(N551884, N552970) } 
+ ( (-55mv,-0.57nA)(-50mv,-0.71nA)(3mv,-1.65nA)(10mv,-1.67nA) )
G_G10092         N5870611 N587675 TABLE { V(N586885, N586799) } 
+ ( (-55mv,-0.57nA)(-50mv,-0.71nA)(3mv,-1.65nA)(10mv,-1.67nA) )
R_R981         N601191 N621961  100k  
C_C34214         N624927 N624763  4p  
V_V8885         N6644940 N664104 90mV
R_R1007         N586873 N624881  100k  
R_R1021         N621961 N622349  100  
R_R239         N663958 N663922  100  
R_R12300         N098131 N098700  30meg  
R_R188         N662802 N626223  100  
R_R964         N580710 N580702  200k  
C_C881         N665433 N665329  4p  
R_R9253         N588541 N5887631  3000meg  
R_R205         N666640 N666896  100k  
R_R11701         N625191 N6252850  6000meg  
V_V9978         N6671140 N666636 90mV
G_G997         N6667061 N6672081 TABLE { V(N666786, N666682) } 
+ ( (-55mv,-0.57nA)(-50mv,-0.71nA)(3mv,-1.65nA)(10mv,-1.67nA) )
V_V2304         N6056940 N600841 90mV
V_V37         N5538801 N551884 90mV
R_R128994         N6623010 N661449  6000meg  
V_V231         N5884970 N588233 90mV
V_V6         N5309840 N530380 90mV
R_R12399         N6590610 N658567  6000meg  
R_R933         N585520 N586831  100k  
R_R27         N5538801 N552970  6000meg  
R_R85         N565026 N552172  6000meg  
C_C774         N666604 N666636  6p  
R_R133         N644683 N645267  7  
C_C239         N552142 N552122  4p  
V_V412         N5769720 N572062 90mV
C_C34410         N623770 N623350  6p  
R_R11400         N624927 N6252170  6000meg  
R_R1         N5307461 N530376  6000meg  
C_C34114         N626455 N626187  4p  
R_R125993         N669310 N6692501  3000meg  
C_C1         N534177 N534493  6p  
R_R78         N552970 N552906  7  
R_R9282         N5808300 N580624  6000meg  
V_V2903         N626191 N6262890 60mV
R_R943         N585520 N586198  100  
R_R32         N524224 N542115  100  
R_R1090         N518275 N10153  200k  
C_C34310         N624771 N624931  6p  
R_R211         N667993 N668249  100k  
C_C230         N534177 N534359  6p  
R_R224         N668039 N661509  100k  
R_R1110         N518511 N522841  100k  
R_R9283         N5856520 N585446  6000meg  
V_V9999         N6649860 N663954 90mV
V_V9974         N6603740 N659896 90mV
G_G990         N6599661 N6604681 TABLE { V(N660046, N659942) } 
+ ( (-55mv,-0.57nA)(-50mv,-0.71nA)(3mv,-1.65nA)(10mv,-1.67nA) )
V_V3601         N626455 N6264870 60mV
C_C992         N658531 N658665  4p  
R_R999         N627087 N626301  100k  
V_V9096         N664104 N6640241 60mV
R_R959         N531060 N534779  100k  
R_R9224         N586911 N5871450  6000meg  
R_R129         0 N645935  100k  
C_C7778         N659864 N659896  6p  
R_R139         N658571 N659906  7  
R_R17         N531460 N534167  7  
V_V413         N5885930 N588237 90mV
R_R460         0 N524164  100k  
R_R145         N660156 N661253  100k  
V_V8         N5376141 N534177 90mV
R_R108         N5177391 N5177390  3000meg  
R_R9273         N572646 N572314  3000meg  
R_R125991         N662570 N6625101  3000meg  
R_R9243         N5878711 N586795  3000meg  
G_G34905         N6008850 N6008851 TABLE { V(N600899, 0) } 
+ ( (-55mv,-0.57nA)(-50mv,-0.71nA)(3mv,-1.65nA)(10mv,-1.67nA) )
R_R122994         N669352 N6693300  6000meg  
V_V400         N580710 N5812360 60mV
R_R994         N624771 N625035  200k  
V_V4401         N600841 N6015570 60mV
V_V9971         N6526510 N644693 90mV
R_R158         N661509 N661685  100  
G_G193         N6681270 N6681271 TABLE { V(N668133, N667999) } 
+ ( (-55mv,-0.57nA)(-50mv,-0.71nA)(3mv,-1.65nA)(10mv,-1.67nA) )
R_R123991         N6658230 N665329  6000meg  
R_R195         0 N663958  100k  
V_V404         N585532 N5860580 60mV
R_R56         N551968 N552392  7  
R_R127992         N644895 N645085  3000meg  
V_V424         N580710 N5808861 60mV
V_V393         N5883570 N588237 90mV
R_R12103         N6233021 N623510  6000meg  
R_R11801         N625191 N6248691  3000meg  
R_R7         N5309840 N530720  6000meg  
R_R166         N660332 N659946  100k  
V_V294         N572066 N5723460 60mV
V_V421         N585532 N5857081 60mV
R_R949         N586831 N587189  100  
V_V3901         N624763 N6247511 60mV
R_R1111         N518511 N530384  7  
R_R160         N530376 0  1k  
R_R126993         N669310 N6698200  6000meg  
R_R121996         N667999 N6681271  3000meg  
R_R121997         0 N6459831  3000meg  
V_V4001         N6059550 N601039 90mV
R_R289         N558596 N534103  3000meg  
R_R232         N665719 N665333  100k  
R_R122999         N662612 N6625900  6000meg  
R_R954         N588233 N588237  200k  
C_C34213         N623506 N623342  4p  
R_R217         N668039 N669352  7  
C_C993         N665293 N665427  4p  
R_R11403         0 N6058630  6000meg  
G_G196         N6613870 N6613871 TABLE { V(N661393, N661259) } 
+ ( (-55mv,-0.57nA)(-50mv,-0.71nA)(3mv,-1.65nA)(10mv,-1.67nA) )
G_G998         N6447590 N6447591 TABLE { V(N645119, N644683) } 
+ ( (-55mv,-0.57nA)(-50mv,-0.71nA)(3mv,-1.65nA)(10mv,-1.67nA) )
R_R183         N644693 N644689  200k  
R_R11703         N623770 N6238640  6000meg  
C_C34212         0 N600899  4p  
G_G21991         N6678970 N6678971 TABLE { V(N667989, N667957) } 
+ ( (-55mv,-0.57nA)(-50mv,-0.71nA)(3mv,-1.65nA)(10mv,-1.67nA) )
V_V9966         N666636 N6672880 60mV
G_G34         N5534220 N5523080 TABLE { V(N552134, N552392) } 
+ ( (-55mv,-0.57nA)(-50mv,-0.71nA)(3mv,-1.65nA)(10mv,-1.67nA) )
G_G219001         N6011410 N6011411 TABLE { V(N600841, N600833) } 
+ ( (-55mv,-0.57nA)(-50mv,-0.71nA)(3mv,-1.65nA)(10mv,-1.67nA) )
R_R2         N530472 N530376  3000meg  
R_R971         N586799 N553082  100  
R_R11302         N626347 N6265611  3000meg  
V_V8887         N6671760 N666786 90mV
R_R982         N621961 N622593  100k  
C_C34413         N622349 N621929  6p  
V_V8899         N6693300 N669486 90mV
R_R11404         N623506 N6237960  6000meg  
R_R125992         N658489 N6584291  3000meg  
R_R12199         N661259 N6613871  3000meg  
R_R69         N551672 0  1k  
R_R200         N665333 N666646  7  
R_R124992         N6645261 N664000  3000meg  
R_R126991         N662570 N6630800  6000meg  
V_V17         N552052 N5527500 60mV
C_C34110         N625035 N624767  4p  
R_R1015         N624246 N623460  100k  
C_C34311         N623350 N623510  6p  
V_V2904         N624771 N6248690 60mV
R_R175         N665483 N658525  100  
R_R988         N623350 N623614  200k  
R_R11804         N600833 N6011411  3000meg  
R_R206         N666682 N666686  7  
R_R1022         N601191 N601787  100  
G_G2100         N5874110 N5874111 TABLE { V(N586885, N587189) } 
+ ( (-55mv,-0.57nA)(-50mv,-0.71nA)(3mv,-1.65nA)(10mv,-1.67nA) )
R_R240         N665287 N665251  100  
V_V9968         N659896 N6605480 60mV
R_R914         N572062 N572066  200k  
R_R3         N097341 N10102  60mV  
G_G21999         N6611570 N6611571 TABLE { V(N661249, N661217) } 
+ ( (-55mv,-0.57nA)(-50mv,-0.71nA)(3mv,-1.65nA)(10mv,-1.67nA) )
R_R151         N662648 N662652  7  
V_V3604         N625035 N6250670 60mV
R_R944         N586198 N585720  100k  
R_R12899         N6649860 N664154  6000meg  
R_R1008         N586831 N624931  100  
V_V88991         N6523920 N644689 90mV
V_V888         N6604360 N660046 90mV
C_C771         N669342 N669542  6p  
V_V88995         N6625900 N662746 90mV
R_R212         N668035 N668039  7  
R_R122996         N658531 N6585090  6000meg  
R_R134         N645267 N658531  7  
R_R1001         N626855 N627087  100  
R_R127994         N664258 N664154  3000meg  
V_V4004         N6271790 N626455 90mV
R_R9210         N586911 N5869831  3000meg  
V_V362         N586881 N5869830 60mV
R_R225         N669542 N662606  100  
V_V9988         N667989 N6678970 60mV
G_G2101         N5727140 N5727141 TABLE { V(N572062, N572360) } 
+ ( (-55mv,-0.57nA)(-50mv,-0.71nA)(3mv,-1.65nA)(10mv,-1.67nA) )
C_C240         N552628 N552324  4p  
R_R43         N534307 N551672  1k  
R_R9262         N588541 N5885930  6000meg  
R_R19         N530938 0  1k  
C_C410         N572916 N580706  4p  
G_G5002         N5541580 N5541581 TABLE { V(N552142, N552122) } 
+ ( (-55mv,-0.57nA)(-50mv,-0.71nA)(3mv,-1.65nA)(10mv,-1.67nA) )
R_R934         N600899 N600841  200k  
R_R74         N552628 N5516361  3000meg  
G_G50014         N5884471 N5892231 TABLE { V(N588229, N588147) } 
+ ( (-55mv,-0.57nA)(-50mv,-0.71nA)(3mv,-1.65nA)(10mv,-1.67nA) )
V_V9097         N666786 N6667061 60mV
R_R80         N5185331 N5186730  3000meg  
R_R11802         N623770 N6234481  3000meg  
R_R960         N585442 N585720  7  
C_C414         N585558 N585528  4p  
R_R12104         N6218811 N622089  6000meg  
R_R189         N663954 N664104  200k  
R_R9271         N581500 N580624  3000meg  
R_R125999         N665251 N6651911  3000meg  
R_R34         N534359 N5375320  6000meg  
G_G192         N6459830 N6459831 TABLE { V(N644689, 0) } 
+ ( (-55mv,-0.57nA)(-50mv,-0.71nA)(3mv,-1.65nA)(10mv,-1.67nA) )
R_R9280         N5770571 N572314  6000meg  
C_C778         N662602 N662802  6p  
R_R9270         N586322 N585446  3000meg  
R_R1028         N601177 N622085  7  
R_R146         N661393 N661249  200k  
V_V3900         N623342 N6233301 60mV
G_G3419         N5304941 N5307861 TABLE { V(N530392, N530384) } 
+ ( (-55mv,-0.57nA)(-50mv,-0.71nA)(3mv,-1.65nA)(10mv,-1.67nA) )
V_V40231         N10153 N5242081 60mV
R_R126992         N658489 N6589990  6000meg  
V_V24         N5607240 N552016 90mV
V_V4100         N6267050 N626191 90mV
V_V9982         N661249 N6611570 60mV
R_R26         N534645 N534103  7  
R_R159         N661685 N661299  100k  
C_C34210         N622085 N621921  4p  
G_G8884         N6686410 N668293 TABLE { V(N667989, N668189) } 
+ ( (-55mv,-0.57nA)(-50mv,-0.71nA)(3mv,-1.65nA)(10mv,-1.67nA) )
R_R9232         N5811581 N580620  6000meg  
V_V8894         N668133 N6681270 60mV
R_R128996         N6527361 N645085  6000meg  
R_R233         N666640 N666604  100  
R_R100         N10153 N517853  200k  
V_V4404         N626191 N6263330 60mV
V_V9094         N660046 N6599661 60mV
V_V7         N530380 N5308840 60mV
R_R9231         N5859801 N585442  6000meg  
R_R965         N580706 N580710  200k  
C_C420         N586877 N586795  4p  
V_V291         N580702 N5809201 60mV
R_R11704         N622349 N6224430  6000meg  
R_R122997         N665293 N6652710  6000meg  
R_R107         N5313920 N530384  6000meg  
R_R9234         N5768241 N572526  6000meg  
V_V293         N585524 N5857421 60mV
V_V88999         N6585090 N658665 90mV
R_R86         N552138 N5518321  3000meg  
R_R11401         N622085 N6223750  6000meg  
R_R167         N660096 N623382  100  
G_G349011         N5177390 0 TABLE { V(N518275, 0) } 
+ ( (-55mv,-05.7nA)(-50mv,-7.1nA)(3mv,-16.5nA)(10mv,-16.7nA) )
R_R11303         N624927 N6251411  3000meg  
V_V16         N5371821 N534215 90mV
R_R140         N658781 N659900  100k  
G_G994         N6694121 N6699141 TABLE { V(N669492, N669388) } 
+ ( (-55mv,-0.57nA)(-50mv,-0.71nA)(3mv,-1.65nA)(10mv,-1.67nA) )
R_R8         N5308841 N530720  3000meg  
C_C34111         N623614 N623346  4p  
C_C889         N668139 N668035  4p  
G_G8881         N6619010 N661553 TABLE { V(N661249, N661449) } 
+ ( (-55mv,-0.57nA)(-50mv,-0.71nA)(3mv,-1.65nA)(10mv,-1.67nA) )
V_V997         N6698200 N669342 90mV
R_R935         N586831 N586873  100k  
R_R123999         N6525031 N644683  6000meg  
C_C34312         N621929 N622089  6p  
V_V2900         N623350 N6234480 60mV
V_V889         N661393 N6613870 60mV
C_C772         N669310 N669342  6p  
R_R983         N621929 N622193  200k  
C_C34         N534109 N534167  4p  
V_V9994         N6676880 N666636 90mV
C_C886         N645119 N644683  4p  
C_C444         N586885 N586799  6p  
R_R126997         N665251 N6657610  6000meg  
R_R71         N552172 0  1k  
V_V290202         N600841 N6011410 60mV
V_V3602         N623614 N6236460 60mV
C_C777         N658521 N658721  6p  
C_C412         0 N572160  4p  
V_V423         N572062 N5727580 60mV
R_R124997         N6672081 N666682  3000meg  
R_R9284         N5883570 N588151  6000meg  
R_R995         N624763 N624771  200k  
R_R972         N585720 N534817  100k  
R_R201         N665329 N665333  7  
C_C882         N661399 N661295  4p  
V_V4002         N6257590 N625035 90mV
R_R121999         0 N6640921  3000meg  
V_V9972         N6630800 N662602 90mV
G_G995         N6626721 N6631741 TABLE { V(N662752, N662648) } 
+ ( (-55mv,-0.57nA)(-50mv,-0.71nA)(3mv,-1.65nA)(10mv,-1.67nA) )
R_R500         N524164 N524224  100k  
R_R1023         N601787 N601177  100k  
R_R1002         N626301 N626187  7  
R_R37         N524164 N524070  100  
R_R13         N530938 N534493  1k  
R_R1016         N623460 N585520  100k  
C_C779         N662570 N662602  6p  
V_V360         N572160 N5733260 60mV
R_R11803         N622349 N6220271  3000meg  
V_V88998         N6652710 N665427 90mV
V_V9993         N6609480 N659896 90mV
R_R293         N534167 N5342091  3000meg  
V_V9         N534177 N5344850 60mV
R_R176         N658721 N621961  100  
R_R207         N666686 N667999  7  
R_R57         N551974 N551870  100  
R_R218         N669392 N662862  100k  
V_V381         N5811581 N580702 90mV
V_V4102         N6060010 N600841 90mV
G_G500904         N6264870 N6264871 TABLE { V(N626455, N626187) } 
+ ( (-55mv,-0.57nA)(-50mv,-0.71nA)(3mv,-1.65nA)(10mv,-1.67nA) )
R_R12799         N666940 N666836  3000meg  
R_R124994         N6604681 N659942  3000meg  
V_V383         N5859801 N585524 90mV
V_V3903         N621921 N6219091 60mV
R_R152         N662606 N662862  100k  
R_R123997         N6685290 N668035  6000meg  
R_R170         N522841 N530376  1k  
R_R1009         N624881 N625667  100k  
V_V401         N588237 N5887630 60mV
V_V4101         N6252850 N624771 90mV
R_R945         N580698 N581376  100  
R_R226         N668189 N661253  100  
V_V420         N588237 N5884131 60mV
C_C241         N551980 N552052  6p  
R_R955         N586795 N587073  7  
V_V9963         N644693 N6449370 60mV
C_C7727         N665283 N665483  6p  
V_V4402         N624771 N6249130 60mV
R_R44         N551672 N552510  1k  
R_R213         N669486 N669342  200k  
R_R127997         N660200 N660096  3000meg  
R_R976         N587073 N588263  7  
V_V19         N552016 N5518320 60mV
R_R950         N534817 N553082  100k  
C_C340         N518275 0  4p  
V_V2         N530388 N5304240 60mV
G_G21002         N5527500 N5527501 TABLE { V(N551704, N551980) } 
+ ( (-55mv,-0.57nA)(-50mv,-0.71nA)(3mv,-1.65nA)(10mv,-1.67nA) )
R_R11902         N601929 N600837  3000meg  
G_G198         N6640920 N6640921 TABLE { V(N664098, 0) } 
+ ( (-55mv,-0.57nA)(-50mv,-0.71nA)(3mv,-1.65nA)(10mv,-1.67nA) )
R_R81         N552180 N551672  3000meg  
V_V2300         N6261431 N626191 90mV
V_V3         N097341 N10153 90mv
C_C996         N667999 N668133  4p  
R_R123996         N6617890 N661295  6000meg  
R_R11301         N623506 N6237201  3000meg  
G_G993         N6585911 N6590931 TABLE { V(N658671, N658567) } 
+ ( (-55mv,-0.57nA)(-50mv,-0.71nA)(3mv,-1.65nA)(10mv,-1.67nA) )
R_R1600         N10102 0  1k  
R_R301         N5241520 N524070  60mV  
V_V9975         N6589990 N658521 90mV
R_R161         N661299 N625435  100k  
C_C34112         N622193 N621925  4p  
V_V998         N663954 N6638620 60mV
R_R989         N623342 N623350  200k  
R_R135         N658665 N658521  200k  
C_C775         N658489 N658521  6p  
V_V9967         N669342 N6699940 60mV
V_V2901         N621929 N6220270 60mV
C_C431         N587189 N586885  6p  
V_V70         N517853 N5185331 60mV
G_G10090         N5727580 N572646 TABLE { V(N572062, N572314) } 
+ ( (-55mv,-0.57nA)(-50mv,-0.71nA)(3mv,-1.65nA)(10mv,-1.67nA) )
R_R40         N534779 N534359  100  
R_R141         N659900 N660156  100k  
V_V8886         N6698820 N669492 90mV
R_R31         N552392 N551866  6000meg  
R_R234         N665333 N658781  100k  
R_R52         N552510 N552172  1k  
V_V3603         N622193 N6222250 60mV
R_R915         N572160 N572062  200k  
C_C999         N661259 N661393  4p  
R_R128992         N6676880 N666836  6000meg  
R_R936         N586873 N588183  100k  
G_G10094         N5808861 N581500 TABLE { V(N580710, N580624) } 
+ ( (-55mv,-0.57nA)(-50mv,-0.71nA)(3mv,-1.65nA)(10mv,-1.67nA) )
G_G21995         N6638620 N6638621 TABLE { V(N663954, N663922) } 
+ ( (-55mv,-0.57nA)(-50mv,-0.71nA)(3mv,-1.65nA)(10mv,-1.67nA) )
G_G3402         N5869830 N5869831 TABLE { V(N586881, N586911) } 
+ ( (-55mv,-0.57nA)(-50mv,-0.71nA)(3mv,-1.65nA)(10mv,-1.67nA) )
V_V4000         N6243380 N623614 90mV
R_R1029         N622039 N623506  7  
R_R961         N585532 N585524  200k  
V_V30         N551884 N5524280 60mV
V_V9961         N662602 N6632540 60mV
G_G10093         N5857081 N586322 TABLE { V(N585532, N585446) } 
+ ( (-55mv,-0.57nA)(-50mv,-0.71nA)(3mv,-1.65nA)(10mv,-1.67nA) )
R_R35         N535105 N534493  3000meg  
R_R168         N658571 N622593  100k  
R_R978         N601265 N601177  7  
V_V8882         N6631420 N662752 90mV
R_R938         N588903 N588425  100k  
R_R9212         0 N5733261  3000meg  
R_R920         N580620 N580898  7  
R_R109         N530392 N530388  200k  
G_G991         N6653531 N6658551 TABLE { V(N665433, N665329) } 
+ ( (-55mv,-0.57nA)(-50mv,-0.71nA)(3mv,-1.65nA)(10mv,-1.67nA) )
G_G342         N5342090 N5342091 TABLE { V(N534109, N534167) } 
+ ( (-55mv,-0.57nA)(-50mv,-0.71nA)(3mv,-1.65nA)(10mv,-1.67nA) )
V_V9973         N6657610 N665283 90mV
R_R973         N585446 N534779  100  
G_G500901         N6250670 N6250671 TABLE { V(N625035, N624767) } 
+ ( (-55mv,-0.57nA)(-50mv,-0.71nA)(3mv,-1.65nA)(10mv,-1.67nA) )
R_R128991         N6609480 N660096  6000meg  
R_R9252         N587189 N5874111  3000meg  
R_R147         N661249 N661399  200k  
V_V233         N5871450 N586881 90mV
V_V9091         N669492 N6694121 60mV
C_C773         N644697 N644693  6p  
R_R191         N664098 N663954  200k  
R_R58         N551870 N551968  100k  
R_R219         N669778 N669392  100k  
C_C7717         N665251 N665283  6p  
C_C411         N588263 N588233  4p  
V_V4103         N6238640 N623350 90mV
R_R125998         N667957 N6678971  3000meg  
R_R87         N552138 N5607240  6000meg  
R_R9274         N589027 N588151  3000meg  
R_R184         N659946 N661259  7  
R_R153         N661509 N662606  100k  
R_R966         N524224 N530590  100k  
V_V4400         N623350 N6234920 60mV
R_R946         N581376 N580898  100k  
R_R1024         N601177 N572884  100k  
R_R9223         N572916 N5809700  6000meg  
R_R9220         N585558 N5857920  6000meg  
V_V1         N5307461 N530388 90mV
R_R10         N530388 N530380  200k  
R_R177         N645267 N601191  100k  
R_R9233         N5886851 N588147  6000meg  
R_R9240         N5816961 N580620  3000meg  
V_V9092         N662752 N6626721 60mV
V_V25         N5605410 N552052 90mV
V_V2301         N6247231 N624771 90mV
C_C242         N551704 N551672  6p  
R_R1010         N625667 N625435  100  
C_C34313         N600841 N600837  6p  
R_R11300         N622085 N6222991  3000meg  
R_R1017         N623510 N585478  100  
R_R41         N5310881 N530508  3000meg  
V_V414         N5872410 N586885 90mV
R_R65         N551876 N552934  100k  
R_R125996         N661217 N6611571  3000meg  
V_V9965         N658521 N6591730 60mV
R_R9244         N5865181 N585442  3000meg  
R_R122993         N667999 N6679770  6000meg  
G_G1         N5535020 N553240 TABLE { V(N552016, N552172) } 
+ ( (-55mv,-0.57nA)(-50mv,-0.71nA)(3mv,-1.65nA)(10mv,-1.67nA) )
V_V292         N588229 N5884471 60mV
R_R227         N666686 N660156  100k  
V_V8889         N6590610 N658671 90mV
R_R42         N534817 N543886  100  
G_G199         N6667740 N6667741 TABLE { V(N666780, N666646) } 
+ ( (-55mv,-0.57nA)(-50mv,-0.71nA)(3mv,-1.65nA)(10mv,-1.67nA) )
R_R72         N552510 0  1k  
R_R75         N552628 N5592880  6000meg  
R_R984         N621921 N621929  200k  
R_R202         N665543 N666640  100k  
G_G21911         N5241020 N524070 TABLE { V(N10153, N524070) } 
+ ( (-55mv,-0.57nA)(-50mv,-0.71nA)(3mv,-1.65nA)(10mv,-1.67nA) )
R_R1800         N10102 N522841  1k  
R_R9242         N5723461 N572526  3000meg  
R_R11600         N6271790 N626187  6000meg  
G_G888         N6646060 N664258 TABLE { V(N663954, N664154) } 
+ ( (-55mv,-0.57nA)(-50mv,-0.71nA)(3mv,-1.65nA)(10mv,-1.67nA) )
V_V391         N5870050 N586885 90mV
V_V801         N664098 N6640920 60mV
R_R45         N534645 N552628  7  
R_R196         N664214 N665287  100k  
G_G219003         N6262890 N6262891 TABLE { V(N626191, N626611) } 
+ ( (-55mv,-0.57nA)(-50mv,-0.71nA)(3mv,-1.65nA)(10mv,-1.67nA) )
I_I21         0 N10153   STIMULUS=cell
R_R208         N666896 N667993  100k  
V_V402         N530388 N5306121 60mV
R_R1003         N626855 N626223  100k  
R_R312         N534167 N539528  6000meg  
R_R123998         N6644940 N664000  6000meg  
R_R82         N551980 N5527501  3000meg  
V_V382         N5768241 N572066 90mV
V_V9998         N6703940 N669342 90mV
V_V4003         N6229170 N622193 90mV
V_V4         N10153 N098131 60mv
R_R956         N586885 N586877  200k  
R_R122992         N661259 N6612370  6000meg  
R_R912         N572356 N572884  100k  
R_R929         N572884 N580656  100k  
R_R12699         N667957 N6684670  6000meg  
R_R121993         N666646 N6667741  3000meg  
R_R235         N666836 N659900  100  
R_R996         N626191 N626455  200k  
R_R124995         N6447591 N644683  3000meg  
R_R124993         N6699141 N669388  3000meg  
R_R12100         N6056940 N600837  6000meg  
G_G3490         N6600340 N6600341 TABLE { V(N660040, N659906) } 
+ ( (-55mv,-0.57nA)(-50mv,-0.71nA)(3mv,-1.65nA)(10mv,-1.67nA) )
R_R14         N534493 N534307  1k  
R_R142         N659896 N660046  200k  
C_C888         N664104 N664000  4p  
R_R29         N552392 N5523080  3000meg  
R_R162         N661449 N624803  100  
R_R937         N588183 N588225  100k  
R_R11501         N6264871 N626187  3000meg  
G_G500900         N6236460 N6236461 TABLE { V(N623614, N623346) } 
+ ( (-55mv,-0.57nA)(-50mv,-0.71nA)(3mv,-1.65nA)(10mv,-1.67nA) )
V_V9095         N658671 N6585911 60mV
G_G21997         N6665440 N6665441 TABLE { V(N666636, N666604) } 
+ ( (-55mv,-0.57nA)(-50mv,-0.71nA)(3mv,-1.65nA)(10mv,-1.67nA) )
V_V9969         N665283 N6659350 60mV
R_R169         N658957 N658571  100k  
R_R53         N552172 N555418  1k  
V_V88992         N6679770 N668133 90mV
V_V999         N6636540 N662602 90mV
V_V4104         N6224430 N621929 90mV
V_V32         N5593861 N552142 90mV
R_R11502         N6020231 N601265  3000meg  
V_V8883         N6658230 N665433 90mV
R_R939         N588225 N588903  100  
V_V670         N1585331 N518275 90mV
R_R126999         N661217 N6617270  6000meg  
R_R121994         N659906 N6600341  3000meg  
G_G21         N5518320 N5518321 TABLE { V(N552016, N552138) } 
+ ( (-55mv,-0.57nA)(-50mv,-0.71nA)(3mv,-1.65nA)(10mv,-1.67nA) )
R_R220         N669602 N669778  100  
V_V384         N5886851 N588229 90mV
V_V3600         N601039 N6020230 60mV
R_R127999         N669646 N669542  3000meg  
R_R124999         N6631741 N662648  3000meg  
R_R36         N5376141 N534493  6000meg  
R_R59         N551968 N552510  100k  
V_V395         N5770571 N572062 90mV
R_R70         N5185751 N517623  6000meg  
V_V4403         N621929 N6220710 60mV
G_G2102         N5812360 N5812361 TABLE { V(N580710, N581014) } 
+ ( (-55mv,-0.57nA)(-50mv,-0.71nA)(3mv,-1.65nA)(10mv,-1.67nA) )
R_R130         N645935 N645951  100k  
G_G21993         N6598040 N6598041 TABLE { V(N659896, N659864) } 
+ ( (-55mv,-0.57nA)(-50mv,-0.71nA)(3mv,-1.65nA)(10mv,-1.67nA) )
G_G2104         N5860580 N5860581 TABLE { V(N585532, N585836) } 
+ ( (-55mv,-0.57nA)(-50mv,-0.71nA)(3mv,-1.65nA)(10mv,-1.67nA) )
G_G21004         N5306121 N5310881 TABLE { V(N530388, N530508) } 
+ ( (-55mv,-0.57nA)(-50mv,-0.71nA)(3mv,-1.65nA)(10mv,-1.67nA) )
C_C424         N572066 N572526  4p  
V_V2302         N6233021 N623350 90mV
G_G218         N5344850 N5344851 TABLE { V(N534177, N534359) } 
+ ( (-55mv,-0.57nA)(-50mv,-0.71nA)(3mv,-1.65nA)(10mv,-1.67nA) )
R_R9211         N572916 N5808081  3000meg  
R_R214         N669342 N669492  200k  
V_V364         N580706 N5808080 60mV
R_R951         N534779 N534817  100k  
V_V11         N5375320 N534177 90mV
C_C7799         N667989 N668189  6p  
V_V88993         N6612370 N661393 90mV
V_V363         N585528 N5856300 60mV
R_R974         N580898 N531060  100k  
R_R9214         N585558 N5856301  3000meg  
R_R127991         N662906 N662802  3000meg  
R_R979         N600829 N601191  100k  
R_R11304         0 N6008851  3000meg  
V_V9985         N666636 N6665440 60mV
R_R990         N623382 N624014  100k  
R_R154         N662652 N626855  100k  
R_R1030         N623460 N624927  7  
V_V3801         N6266370 N626183 90mV
R_R1011         N625191 N624803  100  
R_R967         N530590 N531060  100k  
R_R136         N658525 N658781  100k  
V_V9098         N665433 N6653531 60mV
R_R9260         N587189 N5872410  6000meg  
R_R947         N580656 N581014  100  
R_R22         N543886 N534645  100k  
G_G50011         N5870951 N5878711 TABLE { V(N586877, N586795) } 
+ ( (-55mv,-0.57nA)(-50mv,-0.71nA)(3mv,-1.65nA)(10mv,-1.67nA) )
V_V9992         N6527361 N644693 90mV
G_G1000         N5520840 N552180 TABLE { V(N551704, N551672) } 
+ ( (-55mv,-0.57nA)(-50mv,-0.71nA)(3mv,-1.65nA)(10mv,-1.67nA) )
R_R73         N555418 0  1k  
R_R11602         N6257590 N624767  6000meg  
R_R178         N645409 N645267  100k  
R_R1070         N1585331 0  6000meg  
R_R66         N552934 N552554  100  
C_C23         N10153 N524070  6p  
V_V31         N551866 N552134 90mV
G_G219004         N6248690 N6248691 TABLE { V(N624771, N625191) } 
+ ( (-55mv,-0.57nA)(-50mv,-0.71nA)(3mv,-1.65nA)(10mv,-1.67nA) )
C_C7767         N661249 N661449  6p  
V_V9995         N6595730 N658521 90mV
R_R1700         0 N10102  1k  
R_R916         N572916 N524224  100k  
V_V8891         N644689 N6459830 60mV
R_R124996         N6590931 N658567  3000meg  
V_V9983         N659896 N6598040 60mV
C_C243         N552016 N552172  6p  
R_R228         N667993 N667957  100  
R_R1025         N622089 N580656  100  
G_G8886         N6672880 N666940 TABLE { V(N666636, N666836) } 
+ ( (-55mv,-0.57nA)(-50mv,-0.71nA)(3mv,-1.65nA)(10mv,-1.67nA) )
R_R962         N585528 N585532  200k  
R_R203         N666780 N666636  200k  
R_R1018         N622039 N580698  100k  
C_C997         0 N664098  4p  
V_V21         N565026 N552016 90mV
R_R180         N530376 N530938  1k  
R_R128995         N6703940 N669542  6000meg  
C_C422         N580702 N580620  4p  
V_V8898         N666780 N6667740 60mV
G_G34901         N6261711 N6265611 TABLE { V(N626183, N626347) } 
+ ( (-55mv,-0.57nA)(-50mv,-0.71nA)(3mv,-1.65nA)(10mv,-1.67nA) )
G_G5008         N5308840 N5308841 TABLE { V(N530380, N530720) } 
+ ( (-55mv,-0.57nA)(-50mv,-0.71nA)(3mv,-1.65nA)(10mv,-1.67nA) )
G_G10091         N5884131 N589027 TABLE { V(N588237, N588151) } 
+ ( (-55mv,-0.57nA)(-50mv,-0.71nA)(3mv,-1.65nA)(10mv,-1.67nA) )
R_R1004         N626223 N625435  100k  
C_C423         N585524 N585442  4p  
R_R197         N665287 N665543  100k  
R_R209         N668133 N667989  200k  
R_R148         N661253 N661509  100k  
G_G500903         N6222250 N6222251 TABLE { V(N622193, N621925) } 
+ ( (-55mv,-0.57nA)(-50mv,-0.71nA)(3mv,-1.65nA)(10mv,-1.67nA) )
R_R977         N585720 N586911  7  
C_C77         N644693 N645085  6p  
R_R192         N664000 N664004  7  
R_R11503         N6250671 N624767  3000meg  
R_R930         N580656 N580698  100k  
V_V26         N551704 N5520840 60mV
C_C236         N530388 N530508  6p  
R_R127993         N658825 N658721  3000meg  
R_R171         N658781 N658957  100  
V_V9976         N6684670 N667989 90mV
G_G992         N6680591 N6685611 TABLE { V(N668139, N668035) } 
+ ( (-55mv,-0.57nA)(-50mv,-0.71nA)(3mv,-1.65nA)(10mv,-1.67nA) )
C_C2         N10153 N10102  6p  
R_R940         N588183 N588541  100  
C_C887         N666786 N666682  4p  
G_G8885         N6605480 N660200 TABLE { V(N659896, N660096) } 
+ ( (-55mv,-0.57nA)(-50mv,-0.71nA)(3mv,-1.65nA)(10mv,-1.67nA) )
V_V8895         N660040 N6600340 60mV
R_R241         N669388 N669392  7  
R_R128997         N6636540 N662802  6000meg  
C_C440         N580710 N580624  6p  
R_R15         N534177 N534215  200k  
R_R236         N664004 N645951  100k  
C_C7779         N667957 N667989  6p  
C_C443         N585532 N585446  6p  
V_V9997         N6663350 N665283 90mV
R_R221         N669346 N669310  100  
G_G50012         N5723460 N5723461 TABLE { V(N572066, N572526) } 
+ ( (-55mv,-0.57nA)(-50mv,-0.71nA)(3mv,-1.65nA)(10mv,-1.67nA) )
R_R185         N661295 N661299  7  
R_R60         N551876 N552138  100  
R_R54         N552016 N551884  200k  
V_V2303         N6218811 N621929 90mV
R_R124991         N6658551 N665329  3000meg  
R_R163         N659946 N624014  100k  
R_R9281         N5870050 N586799  6000meg  
G_G100101         N6263330 N627333 TABLE { V(N626191, N626351) } 
+ ( (-55mv,-0.57nA)(-50mv,-0.71nA)(3mv,-1.65nA)(10mv,-1.67nA) )
R_R9250         N572360 N5727141  3000meg  
R_R83         N551980 N5605410  6000meg  
G_G999         N6613191 N6618211 TABLE { V(N661399, N661295) } 
+ ( (-55mv,-0.57nA)(-50mv,-0.71nA)(3mv,-1.65nA)(10mv,-1.67nA) )
R_R9221         N588263 N5884970  6000meg  
C_C883         N660046 N659942  4p  
V_V9977         N6617270 N661249 90mV
R_R985         N621925 N622039  7  
R_R131         N645951 N658525  100k  
V_V34         N5241520 N10153 90mV
C_C7788         N661217 N661249  6p  
R_R47         N552324 N551704  200k  
V_V3802         N6252170 N624763 90mV
R_R125995         N663922 N6638621  3000meg  
R_R9241         N5892231 N588147  3000meg  
R_R975         N580624 N530590  100  
R_R11904         N627333 N626351  3000meg  
R_R143         N660040 N659896  200k  
R_R12599         N644697 N6456691  3000meg  
R_R11604         N6243380 N623346  6000meg  
R_R127995         N665587 N665483  3000meg  
R_R980         0 N600829  100k  
R_R991         N622593 N623382  100k  
V_V27         N5592880 N552324 90mV
R_R911         N572314 N524164  100  
G_G219005         N6234480 N6234481 TABLE { V(N623350, N623770) } 
+ ( (-55mv,-0.57nA)(-50mv,-0.71nA)(3mv,-1.65nA)(10mv,-1.67nA) )
R_R179         N645951 N645409  100  
C_C34414         N600833 N600841  6p  
C_C434         N572360 N572062  6p  
V_V88994         N6639420 N664098 90mV
G_G195         N6694800 N6694801 TABLE { V(N669486, N669352) } 
+ ( (-55mv,-0.57nA)(-50mv,-0.71nA)(3mv,-1.65nA)(10mv,-1.67nA) )
R_R123993         N6671760 N666682  6000meg  
R_R155         N663038 N662652  100k  
R_R952         N588237 N588229  200k  
R_R76         N5541581 N552122  3000meg  
R_R11601         N6059550 N601265  6000meg  
G_G1008         N5304240 N530472 TABLE { V(N530388, N530376) } 
+ ( (-55mv,-0.57nA)(-50mv,-0.71nA)(3mv,-1.65nA)(10mv,-1.67nA) )
R_R997         N626183 N626191  200k  
C_C3406         N530392 N530384  4p  
R_R137         N658521 N658671  200k  
V_V33         N552324 N5516360 60mV
V_V403         N586885 N5874110 60mV
R_R67         N552554 N552906  100k  
R_R128993         N6595730 N658721  6000meg  
R_R957         N586881 N586885  200k  
R_R23         N534645 N534307  100k  
R_R968         N588425 N552934  100k  
R_R910         N542115 N518511  100k  
V_V422         N586885 N5870611 60mV
C_C4         N534215 N534103  4p  
R_R917         N573470 N572916  100k  
G_G3410         N5516360 N5516361 TABLE { V(N552324, N552628) } 
+ ( (-55mv,-0.57nA)(-50mv,-0.71nA)(3mv,-1.65nA)(10mv,-1.67nA) )
R_R12299         0 N6639420  6000meg  
R_R1012         N624767 N624881  7  
G_G34904         N6247511 N6251411 TABLE { V(N624763, N624927) } 
+ ( (-55mv,-0.57nA)(-50mv,-0.71nA)(3mv,-1.65nA)(10mv,-1.67nA) )
G_G3400         N5733260 N5733261 TABLE { V(N572160, 0) } 
+ ( (-55mv,-0.57nA)(-50mv,-0.71nA)(3mv,-1.65nA)(10mv,-1.67nA) )
V_V67         N5313920 N530392 90mV
R_R121998         N669352 N6694801  3000meg  
G_G2         N098700 N10102 TABLE { V(N10153, N10102) } 
+ ( (-55mv,-0.57nA)(-50mv,-0.71nA)(3mv,-1.65nA)(10mv,-1.67nA) )
V_V3804         N6058630 N600899 90mV
R_R11500         N6236461 N623346  3000meg  
C_C99         N666646 N666780  4p  
G_G194         N6627400 N6627401 TABLE { V(N662746, N662612) } 
+ ( (-55mv,-0.57nA)(-50mv,-0.71nA)(3mv,-1.65nA)(10mv,-1.67nA) )
R_R123995         N6604360 N659942  6000meg  
V_V340         N5306720 N530388 90mV
C_C433         N581014 N580710  6p  
V_V60         N5185751 N517853 90mV
R_R1026         N600837 N572356  100  
C_C237         N552392 N552134  4p  
V_V9964         N667989 N6686410 60mV
C_C244         N552138 N552016  6p  
R_R273         N5371821 N534103  6000meg  
C_C432         N585836 N585532  6p  
G_G21996         N6692500 N6692501 TABLE { V(N669342, N669310) } 
+ ( (-55mv,-0.57nA)(-50mv,-0.71nA)(3mv,-1.65nA)(10mv,-1.67nA) )
R_R1005         N588225 N626301  100k  
R_R198         N665283 N665433  200k  
R_R229         N666896 N667072  100  
R_R190         N522841 0  1k  
R_R149         N662602 N662752  200k  
V_V18         N539528 N534109 90mV
R_R61         N552122 N551968  7  
R_R126994         N663922 N6644320  6000meg  
V_V8881         N6685290 N668139 90mV
R_R1031         N624881 N626347  7  
R_R121995         N662612 N6627401  3000meg  
R_R1019         N622593 N622825  100  
R_R931         N580698 N585478  100k  
R_R172         N659900 N659864  100  
R_R63         N553082 N551980  100  
R_R128999         N6663350 N665483  6000meg  
G_G3401         N5808080 N5808081 TABLE { V(N580706, N572916) } 
+ ( (-55mv,-0.57nA)(-50mv,-0.71nA)(3mv,-1.65nA)(10mv,-1.67nA) )
R_R927         N572526 N572916  7  
C_C991         N659906 N660040  4p  
R_R215         N668249 N669346  100k  
R_R193         N664004 N665293  7  

**** RESUMING parb-schematic1-test.sim.cir ****
.END
* E:\KP\CARDIAC_PARALLEL\PARB.stl written on Fri Nov 22 13:17:56 2002
* by Stimulus Editor -- Serial Number: 1107000750 -- Version 9.2
;!Stimulus Get
;! Istim Analog cell Analog
;!Ok
;!Plot Axis_Settings
;!Xrange 0s 16s
;!Yrange 0 3n
;!AutoUniverse
;!XminRes 1ns
;!YminRes 1n
;!Ok
.STIMULUS Istim PULSE( 0 3n 0 1p 1p 500u 5s )
.STIMULUS cell PULSE( 0 500p 0 1p 1p 500u 100m )

**** 04/07/03 14:47:45 ********* PSpice 9.2 (Mar 2000) ******** ID# 1107000750 
 ** Profile: "SCHEMATIC1-test"  [ E:\kp\cardiac_parallel\parb-schematic1-test.sim ] 


 ****     INITIAL TRANSIENT SOLUTION       TEMPERATURE =   27.000 DEG C


******************************************************************************



 NODE   VOLTAGE     NODE   VOLTAGE     NODE   VOLTAGE     NODE   VOLTAGE


(N10102) 3.302E-06 (N10153)    -.0900 (N097341) 3.303E-06                       

(N098131)    -.1500                   (N098700)    -.1329                       

(N517623)-349.8E-06                   (N517853)    -.0889                       

(N518275)    -.0889                   (N518511)-349.7E-06                       

(N522841)-88.03E-09                   (N524070) 3.302E-06                       

(N524164) 3.165E-06                   (N524224)-130.9E-06                       

(N530376)-69.59E-09                   (N530380)    9.8414                       

(N530384)-349.7E-06                   (N530388)    9.8414                       

(N530392)    9.8414                   (N530472)   -4.9658                       

(N530508)-88.58E-06                   (N530590)-88.58E-06                       

(N530720)-23.19E-06                   (N530938)-120.7E-09                       

(N531060)-46.28E-06                   (N531460)-23.19E-06                       

(N534103)-9.955E-06                   (N534109)    9.8415                       

(N534167)-23.19E-06                   (N534177)    9.8415                       

(N534215)    9.8415                   (N534307)-64.89E-09                       

(N534359)-33.07E-06                   (N534493)-61.87E-09                       

(N534645)-9.955E-06                   (N534779)-33.07E-06                       

(N534817)-19.86E-06                   (N535105)   -4.9658                       

(N539528)    9.9315                   (N542115)-131.1E-06                       

(N543067)-46.26E-06                   (N543886)-19.85E-06                       

(N551672)-33.90E-09                   (N551704)    9.8415                       

(N551866)    9.9315                   (N551870)-10.82E-06                       

(N551876)-9.350E-06                   (N551884)    9.8415                       

(N551968)-5.430E-06                   (N551974)-10.83E-06                       

(N551980)-15.34E-06                   (N552016)    9.8415                       

(N552052)    9.8415                   (N552122)-5.430E-06                       

(N552134)    9.8415                   (N552138)-9.350E-06                       

(N552142)    9.8415                   (N552172)-22.55E-09                       

(N552180)   -4.9658                   (N552324)    9.8415                       

(N552392)-5.430E-06                   (N552510)-36.80E-09                       

(N552554)-7.867E-06                   (N552628)-9.955E-06                       

(N552906)-3.949E-06                   (N552934)-7.871E-06                       

(N552970)-3.949E-06                   (N553082)-15.34E-06                       

(N553240)   -4.9658                   (N555418)-30.87E-09                       

(N558596)   -4.9658                   (N565026)    9.9315                       

(N572062)    9.8415                   (N572066)    9.8415                       

(N572160)    9.8415                   (N572314) 3.165E-06                       

(N572356)-23.11E-06                   (N572360)-23.11E-06                       

(N572526)-88.57E-06                   (N572646)   -4.9658                       

(N572884)-46.22E-06                   (N572916)-88.57E-06                       

(N573470)-46.26E-06                   (N580620)-40.26E-06                       

(N580624)-88.58E-06                   (N580656)-40.23E-06                       

(N580698)-34.24E-06                   (N580702)    9.8415                       

(N580706)    9.8415                   (N580710)    9.8415                       

(N580898)-40.26E-06                   (N581014)-40.23E-06                       

(N581376)-34.25E-06                   (N581500)   -4.9658                       

(N585442)-21.05E-06                   (N585446)-33.07E-06                       

(N585478)-28.24E-06                   (N585520)-22.24E-06                       

(N585524)    9.8415                   (N585528)    9.8415                       

(N585532)    9.8415                   (N585558)-40.26E-06                       

(N585720)-21.05E-06                   (N585836)-28.24E-06                       

(N586198)-22.24E-06                   (N586322)   -4.9658                       

(N586795)-13.19E-06                   (N586799)-15.34E-06                       

(N586831)-18.90E-06                   (N586873)-15.55E-06                       

(N586877)    9.8415                   (N586881)    9.8415                       

(N586885)    9.8415                   (N586911)-21.05E-06                       

(N587073)-13.19E-06                   (N587189)-18.90E-06                       

(N587551)-15.55E-06                   (N587675)   -4.9658                       

(N588147)-10.31E-06                   (N588151)-9.350E-06                       

(N588183)-14.15E-06                   (N588225)-12.75E-06                       

(N588229)    9.8415                   (N588233)    9.8415                       

(N588237)    9.8415                   (N588263)-13.19E-06                       

(N588425)-10.31E-06                   (N588541)-14.15E-06                       

(N588903)-12.75E-06                   (N589027)   -4.9658                       

(N600829)-9.903E-06                   (N600833)-9.903E-06                       

(N600837)-23.11E-06                   (N600841)    9.8415                       

(N600899)    9.8415                   (N601039)    9.8415                       

(N601177)-33.02E-06                   (N601191)-19.81E-06                       

(N601265)-33.02E-06                   (N601787)-19.82E-06                       

(N601929)   -4.9658                   (N621921)    9.8415                       

(N621925)-28.23E-06                   (N621929)    9.8415                       

(N621961)-21.01E-06                   (N622039)-28.23E-06                       

(N622085)-33.02E-06                   (N622089)-40.23E-06                       

(N622193)    9.8415                   (N622349)-21.01E-06                       

(N622593)-22.22E-06                   (N622825)-22.23E-06                       

(N623071)   -4.9658                   (N623342)    9.8415                       

(N623346)-20.77E-06                   (N623350)    9.8415                       

(N623382)-20.76E-06                   (N623460)-20.77E-06                       

(N623506)-28.23E-06                   (N623510)-28.24E-06                       

(N623614)    9.8415                   (N623770)-20.76E-06                       

(N624014)-19.31E-06                   (N624246)-19.31E-06                       

(N624492)   -4.9658                   (N624763)    9.8415                       

(N624767)-15.97E-06                   (N624771)    9.8415                       

(N624803)-17.85E-06                   (N624881)-15.97E-06                       

(N624927)-20.77E-06                   (N624931)-18.90E-06                       

(N625035)    9.8415                   (N625191)-17.85E-06                       

(N625435)-16.39E-06                   (N625667)-16.39E-06                       

(N625913)   -4.9658                   (N626183)    9.8415                       

(N626187)-13.79E-06                   (N626191)    9.8415                       

(N626223)-15.61E-06                   (N626301)-13.79E-06                       

(N626347)-15.97E-06                   (N626351)-14.15E-06                       

(N626455)    9.8415                   (N626611)-15.61E-06                       

(N626855)-14.83E-06                   (N627087)-14.83E-06                       

(N627333)   -4.9658                   (N644683)-15.30E-06                       

(N644689)    9.8415                   (N644693)    9.8415                       

(N644697)-5.396E-06                   (N644895)   -4.9658                       

(N645085)-9.903E-06                   (N645119)    9.8415                       

(N645267)-15.30E-06                   (N645409)-10.80E-06                       

(N645935)-5.396E-06                   (N645951)-10.79E-06                       

(N658489)-13.16E-06                   (N658521)    9.8415                       

(N658525)-13.16E-06                   (N658531)-15.30E-06                       

(N658567)-18.88E-06                   (N658571)-18.88E-06                       

(N658665)    9.8415                   (N658671)    9.8415                       

(N658721)-21.01E-06                   (N658781)-15.53E-06                       

(N658825)   -4.9658                   (N658957)-15.53E-06                       

(N659864)-15.95E-06                   (N659896)    9.8415                       

(N659900)-15.95E-06                   (N659906)-18.88E-06                       

(N659942)-17.84E-06                   (N659946)-17.84E-06                       

(N660040)    9.8415                   (N660046)    9.8415                       

(N660096)-20.76E-06                   (N660156)-16.38E-06                       

(N660200)   -4.9658                   (N660332)-16.38E-06                       

(N661217)-16.12E-06                   (N661249)    9.8415                       

(N661253)-16.12E-06                   (N661259)-17.84E-06                       

(N661295)-16.12E-06                   (N661299)-16.12E-06                       

(N661393)    9.8415                   (N661399)    9.8415                       

(N661449)-17.85E-06                   (N661509)-15.86E-06                       

(N661553)   -4.9658                   (N661685)-15.86E-06                       

(N662570)-15.60E-06                   (N662602)    9.8415                       

(N662606)-15.60E-06                   (N662612)-16.12E-06                       

(N662648)-15.09E-06                   (N662652)-15.09E-06                       

(N662746)    9.8415                   (N662752)    9.8415                       

(N662802)-15.61E-06                   (N662862)-15.34E-06                       

(N662906)   -4.9658                   (N663038)-15.34E-06                       

(N663922)-3.920E-06                   (N663954)    9.8415                       

(N663958)-3.920E-06                   (N664000)-9.317E-06                       

(N664004)-9.317E-06                   (N664098)    9.8415                       

(N664104)    9.8415                   (N664154)-5.396E-06                       

(N664214)-7.839E-06                   (N664258)   -4.9658                       

(N664390)-7.841E-06                   (N665251)-10.28E-06                       

(N665283)    9.8415                   (N665287)-10.28E-06                       

(N665293)-9.317E-06                   (N665329)-14.13E-06                       

(N665333)-14.13E-06                   (N665427)    9.8415                       

(N665433)    9.8415                   (N665483)-13.16E-06                       

(N665543)-12.73E-06                   (N665587)   -4.9658                       

(N665719)-12.73E-06                   (N666604)-13.77E-06                       

(N666636)    9.8415                   (N666640)-13.77E-06                       

(N666646)-14.13E-06                   (N666682)-15.60E-06                       

(N666686)-15.60E-06                   (N666780)    9.8415                       

(N666786)    9.8415                   (N666836)-15.95E-06                       

(N666896)-14.81E-06                   (N666940)   -4.9658                       

(N667072)-14.81E-06                   (N667957)-15.08E-06                       

(N667989)    9.8415                   (N667993)-15.08E-06                       

(N667999)-15.60E-06                   (N668035)-15.60E-06                       

(N668039)-15.60E-06                   (N668133)    9.8415                       

(N668139)    9.8415                   (N668189)-16.12E-06                       

(N668249)-15.34E-06                   (N668293)   -4.9658                       

(N668425)-15.34E-06                   (N669310)-15.34E-06                       

(N669342)    9.8415                   (N669346)-15.34E-06                       

(N669352)-15.60E-06                   (N669388)-15.34E-06                       

(N669392)-15.34E-06                   (N669486)    9.8415                       

(N669492)    9.8415                   (N669542)-15.60E-06                       

(N669602)-15.34E-06                   (N669646)   -4.9658                       

(N669778)-15.34E-06                   (N1585331)     .0011                      

(N5177390)   16.9000                  (N5177391)    -.1489                      

(N5185331)    -.1489                  (N5185751)     .0011                      

(N5186730)   16.9000                  (N5241020)    -.1329                      

(N5241520) 3.303E-06                  (N5242081)    -.1500                      

(N5304240)    9.7814                  (N5304941)    9.7814                      

(N5306121)    9.7814                  (N5306720)    9.9314                      

(N5307461)    9.9314                  (N5307861)   -4.9661                      

(N5308840)    9.7814                  (N5308841)   -4.9658                      

(N5309840)    9.9314                  (N5310881)   -4.9658                      

(N5313920)    9.9314                  (N5342090)    9.7815                      

(N5342091)   -4.9658                  (N5343490)    9.7815                      

(N5344850)    9.7815                  (N5344851)   -4.9658                      

(N5348110)    9.7815                  (N5371821)    9.9315                      

(N5375320)    9.9315                  (N5376141)    9.9315                      

(N5516360)    9.7815                  (N5516361)   -4.9658                      

(N5518320)    9.7815                  (N5518321)   -4.9658                      

(N5520840)    9.7815                  (N5523080)   -4.9658                      

(N5524280)    9.7815                  (N5524281)   -4.9658                      

(N5527500)    9.7815                  (N5527501)   -4.9658                      

(N5534220)    9.7815                  (N5535020)    9.7815                      

(N5538801)    9.9315                  (N5541580)    9.7815                      

(N5541581)   -4.9658                  (N5592880)    9.9315                      

(N5593861)    9.9315                  (N5603791)    9.9315                      

(N5605410)    9.9315                  (N5607240)    9.9315                      

(N5723460)    9.7815                  (N5723461)   -4.9658                      

(N5727140)    9.7815                  (N5727141)   -4.9658                      

(N5727580)    9.7815                  (N5733260)    9.7815                      

(N5733261)   -4.9658                  (N5767380)    9.9315                      

(N5768241)    9.9315                  (N5769720)    9.9315                      

(N5770571)    9.9315                  (N5808080)    9.7815                      

(N5808081)   -4.9658                  (N5808300)    9.9315                      

(N5808861)    9.7815                  (N5809201)    9.7815                      

(N5809700)    9.9315                  (N5810660)    9.9315                      

(N5811581)    9.9315                  (N5812360)    9.7815                      

(N5812361)   -4.9658                  (N5816961)   -4.9658                      

(N5856300)    9.7815                  (N5856301)   -4.9658                      

(N5856520)    9.9315                  (N5857081)    9.7815                      

(N5857421)    9.7815                  (N5857920)    9.9315                      

(N5858880)    9.9315                  (N5859801)    9.9315                      

(N5860580)    9.7815                  (N5860581)   -4.9658                      

(N5865181)   -4.9658                  (N5869830)    9.7815                      

(N5869831)   -4.9658                  (N5870050)    9.9315                      

(N5870611)    9.7815                  (N5870951)    9.7815                      

(N5871450)    9.9315                  (N5872410)    9.9315                      

(N5873331)    9.9315                  (N5874110)    9.7815                      

(N5874111)   -4.9658                  (N5878711)   -4.9658                      

(N5883350)    9.7815                  (N5883351)   -4.9658                      

(N5883570)    9.9315                  (N5884131)    9.7815                      

(N5884471)    9.7815                  (N5884970)    9.9315                      

(N5885930)    9.9315                  (N5886851)    9.9315                      

(N5887630)    9.7815                  (N5887631)   -4.9658                      

(N5892231)   -4.9658                  (N6008850)    9.7815                      

(N6008851)   -4.9658                  (N6011410)    9.7815                      

(N6011411)   -4.9658                  (N6015570)    9.7815                      

(N6020230)    9.7815                  (N6020231)   -4.9658                      

(N6056940)    9.9315                  (N6058630)    9.9315                      

(N6059550)    9.9315                  (N6060010)    9.9315                      

(N6218811)    9.9315                  (N6219091)    9.7815                      

(N6220270)    9.7815                  (N6220271)   -4.9658                      

(N6220710)    9.7815                  (N6222250)    9.7815                      

(N6222251)   -4.9658                  (N6222991)   -4.9658                      

(N6223750)    9.9315                  (N6224430)    9.9315                      

(N6229170)    9.9315                  (N6233021)    9.9315                      

(N6233301)    9.7815                  (N6234480)    9.7815                      

(N6234481)   -4.9658                  (N6234920)    9.7815                      

(N6236460)    9.7815                  (N6236461)   -4.9658                      

(N6237201)   -4.9658                  (N6237960)    9.9315                      

(N6238640)    9.9315                  (N6243380)    9.9315                      

(N6247231)    9.9315                  (N6247511)    9.7815                      

(N6248690)    9.7815                  (N6248691)   -4.9658                      

(N6249130)    9.7815                  (N6250670)    9.7815                      

(N6250671)   -4.9658                  (N6251411)   -4.9658                      

(N6252170)    9.9315                  (N6252850)    9.9315                      

(N6257590)    9.9315                  (N6261431)    9.9315                      

(N6261711)    9.7815                  (N6262890)    9.7815                      

(N6262891)   -4.9658                  (N6263330)    9.7815                      

(N6264870)    9.7815                  (N6264871)   -4.9658                      

(N6265611)   -4.9658                  (N6266370)    9.9315                      

(N6267050)    9.9315                  (N6271790)    9.9315                      

(N6447590)    9.7815                  (N6447591)   -4.9658                      

(N6449370)    9.7815                  (N6456690)    9.7815                      

(N6456691)   -4.9658                  (N6459830)    9.7815                      

(N6459831)   -4.9658                  (N6523920)    9.9315                      

(N6525031)    9.9315                  (N6526510)    9.9315                      

(N6527361)    9.9315                  (N6584290)    9.7815                      

(N6584291)   -4.9658                  (N6585090)    9.9315                      

(N6585911)    9.7815                  (N6586590)    9.7815                      

(N6586591)   -4.9658                  (N6589990)    9.9315                      

(N6590610)    9.9315                  (N6590931)   -4.9658                      

(N6591730)    9.7815                  (N6595730)    9.9315                      

(N6598040)    9.7815                  (N6598041)   -4.9658                      

(N6598840)    9.9315                  (N6599661)    9.7815                      

(N6600340)    9.7815                  (N6600341)   -4.9658                      

(N6603740)    9.9315                  (N6604360)    9.9315                      

(N6604681)   -4.9658                  (N6605480)    9.7815                      

(N6609480)    9.9315                  (N6611570)    9.7815                      

(N6611571)   -4.9658                  (N6612370)    9.9315                      

(N6613191)    9.7815                  (N6613870)    9.7815                      

(N6613871)   -4.9658                  (N6617270)    9.9315                      

(N6617890)    9.9315                  (N6618211)   -4.9658                      

(N6619010)    9.7815                  (N6623010)    9.9315                      

(N6625100)    9.7815                  (N6625101)   -4.9658                      

(N6625900)    9.9315                  (N6626721)    9.7815                      

(N6627400)    9.7815                  (N6627401)   -4.9658                      

(N6630800)    9.9315                  (N6631420)    9.9315                      

(N6631741)   -4.9658                  (N6632540)    9.7815                      

(N6636540)    9.9315                  (N6638620)    9.7815                      

(N6638621)   -4.9658                  (N6639420)    9.9315                      

(N6640241)    9.7815                  (N6640920)    9.7815                      

(N6640921)   -4.9658                  (N6644320)    9.9315                      

(N6644940)    9.9315                  (N6645261)   -4.9658                      

(N6646060)    9.7815                  (N6649860)    9.9315                      

(N6651910)    9.7815                  (N6651911)   -4.9658                      

(N6652710)    9.9315                  (N6653531)    9.7815                      

(N6654210)    9.7815                  (N6654211)   -4.9658                      

(N6657610)    9.9315                  (N6658230)    9.9315                      

(N6658551)   -4.9658                  (N6659350)    9.7815                      

(N6663350)    9.9315                  (N6665440)    9.7815                      

(N6665441)   -4.9658                  (N6666240)    9.9315                      

(N6667061)    9.7815                  (N6667740)    9.7815                      

(N6667741)   -4.9658                  (N6671140)    9.9315                      

(N6671760)    9.9315                  (N6672081)   -4.9658                      

(N6672880)    9.7815                  (N6676880)    9.9315                      

(N6678970)    9.7815                  (N6678971)   -4.9658                      

(N6679770)    9.9315                  (N6680591)    9.7815                      

(N6681270)    9.7815                  (N6681271)   -4.9658                      

(N6684670)    9.9315                  (N6685290)    9.9315                      

(N6685611)   -4.9658                  (N6686410)    9.7815                      

(N6690410)    9.9315                  (N6692500)    9.7815                      

(N6692501)   -4.9658                  (N6693300)    9.9315                      

(N6694121)    9.7815                  (N6694800)    9.7815                      

(N6694801)   -4.9658                  (N6698200)    9.9315                      

(N6698820)    9.9315                  (N6699141)   -4.9658                      

(N6699940)    9.7815                  (N6703940)    9.9315                  




    VOLTAGE SOURCE CURRENTS
    NAME         CURRENT

    V_V4020     -1.655E-09
    V_V9962     -1.655E-09
    V_V3800     -1.655E-09
    V_V361      -1.655E-09
    V_V8888     -1.655E-09
    V_V12       -1.655E-09
    V_V9989     -1.655E-09
    V_V232      -1.655E-09
    V_V14       -1.655E-09
    V_V35       -1.655E-09
    V_V8884     -1.655E-09
    V_V234      -1.655E-09
    V_V9093     -1.655E-09
    V_V9981     -1.655E-09
    V_V9987     -1.655E-09
    V_V909      -1.655E-09
    V_V8893     -1.655E-09
    V_V416      -1.655E-09
    V_V680      -5.683E-09
    V_V415      -1.655E-09
    V_V22       -1.655E-09
    V_V290      -1.655E-09
    V_V394      -1.655E-09
    V_V392      -1.655E-09
    V_V8897     -1.655E-09
    V_V9991     -1.655E-09
    V_V28       -1.655E-09
    V_V3803     -1.655E-09
    V_V9979     -1.655E-09
    V_V9984     -1.655E-09
    V_V88996    -1.655E-09
    V_V9996     -1.655E-09
    V_V3902     -1.655E-09
    V_V996      -1.655E-09
    V_V230      -1.655E-09
    V_V380      -1.655E-09
    V_V13       -1.655E-09
    V_V8892     -1.655E-09
    V_V88997    -1.655E-09
    V_V9986     -1.655E-09
    V_V9099     -1.655E-09
    V_V15       -1.655E-09
    V_V3904     -1.655E-09
    V_V68       -1.655E-09
    V_V8896     -1.655E-09
    V_V8885     -1.655E-09
    V_V9978     -1.655E-09
    V_V2304     -1.655E-09
    V_V37       -1.655E-09
    V_V231      -1.655E-09
    V_V6        -1.655E-09
    V_V412      -1.655E-09
    V_V2903     -1.655E-09
    V_V9999     -1.655E-09
    V_V9974     -1.655E-09
    V_V3601     -1.655E-09
    V_V9096     -1.655E-09
    V_V413      -1.655E-09
    V_V8        -1.655E-09
    V_V400      -1.655E-09
    V_V4401     -1.655E-09
    V_V9971     -1.655E-09
    V_V404      -1.655E-09
    V_V424      -1.655E-09
    V_V393      -1.655E-09
    V_V294      -1.655E-09
    V_V421      -1.655E-09
    V_V3901     -1.655E-09
    V_V4001     -1.655E-09
    V_V9966     -1.655E-09
    V_V8887     -1.655E-09
    V_V8899     -1.655E-09
    V_V17       -1.655E-09
    V_V2904     -1.655E-09
    V_V9968     -1.655E-09
    V_V3604     -1.655E-09
    V_V88991    -1.655E-09
    V_V888      -1.655E-09
    V_V88995    -1.655E-09
    V_V4004     -1.655E-09
    V_V362      -1.655E-09
    V_V9988     -1.655E-09
    V_V9097     -1.655E-09
    V_V3900     -1.655E-09
    V_V40231    -5.701E-10
    V_V24       -1.655E-09
    V_V4100     -1.655E-09
    V_V9982     -1.655E-09
    V_V8894     -1.655E-09
    V_V4404     -1.655E-09
    V_V9094     -1.655E-09
    V_V7        -1.655E-09
    V_V291      -1.655E-09
    V_V293      -1.655E-09
    V_V88999    -1.655E-09
    V_V16       -1.655E-09
    V_V997      -1.655E-09
    V_V2900     -1.655E-09
    V_V889      -1.655E-09
    V_V9994     -1.655E-09
    V_V290202   -1.655E-09
    V_V3602     -1.655E-09
    V_V423      -1.655E-09
    V_V4002     -1.655E-09
    V_V9972     -1.655E-09
    V_V360      -1.655E-09
    V_V88998    -1.655E-09
    V_V9993     -1.655E-09
    V_V9        -1.655E-09
    V_V381      -1.655E-09
    V_V4102     -1.655E-09
    V_V383      -1.655E-09
    V_V3903     -1.655E-09
    V_V401      -1.655E-09
    V_V4101     -1.655E-09
    V_V420      -1.655E-09
    V_V9963     -1.655E-09
    V_V4402     -1.655E-09
    V_V19       -1.655E-09
    V_V2        -1.655E-09
    V_V2300     -1.655E-09
    V_V3        -1.056E-08
    V_V9975     -1.655E-09
    V_V998      -1.655E-09
    V_V9967     -1.655E-09
    V_V2901     -1.655E-09
    V_V70       -5.683E-09
    V_V8886     -1.655E-09
    V_V3603     -1.655E-09
    V_V4000     -1.655E-09
    V_V30       -1.655E-09
    V_V9961     -1.655E-09
    V_V8882     -1.655E-09
    V_V9973     -1.655E-09
    V_V233      -1.655E-09
    V_V9091     -1.655E-09
    V_V4103     -1.655E-09
    V_V4400     -1.655E-09
    V_V1        -1.655E-09
    V_V9092     -1.655E-09
    V_V25       -1.655E-09
    V_V2301     -1.655E-09
    V_V414      -1.655E-09
    V_V9965     -1.655E-09
    V_V292      -1.655E-09
    V_V8889     -1.655E-09
    V_V391      -1.655E-09
    V_V801      -1.655E-09
    V_V402      -1.655E-09
    V_V382      -1.655E-09
    V_V9998     -1.655E-09
    V_V4003     -1.655E-09
    V_V4        -5.701E-10
    V_V9095     -1.655E-09
    V_V9969     -1.655E-09
    V_V88992    -1.655E-09
    V_V999      -1.655E-09
    V_V4104     -1.655E-09
    V_V32       -1.655E-09
    V_V8883     -1.655E-09
    V_V670      -1.900E-13
    V_V384      -1.655E-09
    V_V3600     -1.655E-09
    V_V395      -1.655E-09
    V_V4403     -1.655E-09
    V_V2302     -1.655E-09
    V_V364      -1.655E-09
    V_V11       -1.655E-09
    V_V88993    -1.655E-09
    V_V363      -1.655E-09
    V_V9985     -1.655E-09
    V_V3801     -1.655E-09
    V_V9098     -1.655E-09
    V_V9992     -1.655E-09
    V_V31       -1.655E-09
    V_V9995     -1.655E-09
    V_V8891     -1.655E-09
    V_V9983     -1.655E-09
    V_V21       -1.655E-09
    V_V8898     -1.655E-09
    V_V26       -1.655E-09
    V_V9976     -1.655E-09
    V_V8895     -1.655E-09
    V_V9997     -1.655E-09
    V_V2303     -1.655E-09
    V_V9977     -1.655E-09
    V_V34       -1.942E-09
    V_V3802     -1.655E-09
    V_V27       -1.655E-09
    V_V88994    -1.655E-09
    V_V33       -1.655E-09
    V_V403      -1.655E-09
    V_V422      -1.655E-09
    V_V67       -1.655E-09
    V_V3804     -1.655E-09
    V_V340      -1.655E-09
    V_V60       -2.483E-13
    V_V9964     -1.655E-09
    V_V18       -1.655E-09
    V_V8881     -1.655E-09

    TOTAL POWER DISSIPATION   2.57E-08  WATTS



          JOB CONCLUDED

          TOTAL JOB TIME            6.86
